/*--------------------------------*- C++ -*----------------------------------*\
| =========                 |                                                 |
| \\      /  F ield         | OpenFOAM: The Open Source CFD Toolbox           |
|  \\    /   O peration     | Version:  3.0.x                                 |
|   \\  /    A nd           | Web:      www.OpenFOAM.org                      |
|    \\/     M anipulation  |                                                 |
\*---------------------------------------------------------------------------*/
FoamFile
{
    version     2.0;
    format      ascii;
    class       volScalarField;
    object      p;
}
// * * * * * * * * * * * * * * * * * * * * * * * * * * * * * * * * * * * * * //

dimensions      [0 0 0 0 0 0 0];

internalField   uniform 0;

boundaryField
{
  
    top
    {
        type empty;
    }
    left
    {
        type fixedValue;
	value  uniform 20;
    }
    right
    {
        type    fixedGradient;
	gradient  uniform 2;
    }
    bottom
    {
        type empty;
    }
    front
    {
        type empty;
    }
    back
    {
        type empty;
    }
}

// ************************************************************************* //
