/*--------------------------------*- C++ -*----------------------------------*\
| =========                 |                                                 |
| \\      /  F ield         | OpenFOAM: The Open Source CFD Toolbox           |
|  \\    /   O peration     | Version:  3.0.x                                 |
|   \\  /    A nd           | Web:      www.OpenFOAM.org                      |
|    \\/     M anipulation  |                                                 |
\*---------------------------------------------------------------------------*/
FoamFile
{
    version     2.0;
    format      ascii;
    class       dictionary;
    object      blockMeshDict;
}
// * * * * * * * * * * * * * * * * * * * * * * * * * * * * * * * * * * * * * //

convertToMeters 1;	//This is an scaling operation. Done at the end.

xmin 0;
xmax 1;
ymin 0;
ymax 0.01;
zmin 0;
zmax 0.01;

//xcells 20;
//ycells 20;
//zcells 1;

deltax 0.05;	//0.05
deltay 1;	//0.05
deltaz 1;	//0.05


xcells 20;
ycells 1;
zcells 1;

vertices
(
//BLOCK1
    ($xmin  $ymin  $zmin)	//0
    ($xmax  $ymin  $zmin)	//1
    ($xmax  $ymax  $zmin)	//2
    ($xmin  $ymax  $zmin)	//3
    ($xmin  $ymin  $zmax)	//4
    ($xmax  $ymin  $zmax)	//5
    ($xmax  $ymax  $zmax)	//6
    ($xmin  $ymax  $zmax)	//7

/*
    (0 0 0)
    (1 0 0)
    (1 1 0)
    (0 1 0)
    (0 0 0.1)
    (1 0 0.1)
    (1 1 0.1)
    (0 1 0.1)
*/
);

blocks
(
    hex (0 1 2 3 4 5 6 7) ($xcells $ycells $zcells) simpleGrading (1 1 1)
);

edges
(

);

boundary
(
    top
    {
        type empty;
        faces
        (
            (3 7 6 2)
        );
    }
    left
    {
        type wall;
        faces
        (
            (0 4 7 3)
        );
    }
    right
    {
        type wall;
        faces
        (
            (2 6 5 1)
        );
    }
    bottom
    {
        type empty;
        faces
        (
            (0 1 5 4)
        );
    }
    front
    {
        type empty;
        faces
        (
            (4 5 6 7)
        );
    }
    back
    {
        type empty;
        faces
        (
            (0 3 2 1)
        );
    }
);

mergePatchPairs
(

);

// ************************************************************************* //
