FoamFile
{
version 3.0;
format ascii;
class dictionary;
location "system";
object fvSchemes;
}


gradSchemes { default none;}
divSchemes { default none; }
laplacianSchemes { default none;}