FoamFile
{
version 3.0;
format ascii;
class dictionary;
location "system";
object fvSolution;
}


solvers
{
p // The field variable name
{
solver
PCG;
preconditioner none;
tolerance
1e-06;
relTol
0;
}
}
